
---------- Begin Simulation Statistics ----------
simSeconds                                   0.011785                       # Number of seconds simulated (Second)
simTicks                                  11784828000                       # Number of ticks simulated (Tick)
finalTick                                 11784828000                       # Number of ticks from beginning of simulation (restored from checkpoints and never reset) (Tick)
simFreq                                  1000000000000                       # The number of ticks per simulated second ((Tick/Second))
hostSeconds                                    148.11                       # Real time elapsed on the host (Second)
hostTickRate                                 79567630                       # The number of ticks simulated per host second (ticks/s) ((Tick/Second))
hostMemory                                     641256                       # Number of bytes of host memory used (Byte)
simInsts                                     41841366                       # Number of instructions simulated (Count)
simOps                                       44377976                       # Number of ops (including micro ops) simulated (Count)
hostInstRate                                   282500                       # Simulator instruction rate (inst/s) ((Count/Second))
hostOpRate                                     299627                       # Simulator op (including micro ops) rate (op/s) ((Count/Second))
system.clk_domain.clock                          1000                       # Clock period in ticks (Tick)
system.cpu.numCycles                         23569657                       # Number of cpu cycles simulated (Cycle)
system.cpu.numWorkItemsStarted                      0                       # Number of work items this cpu started (Count)
system.cpu.numWorkItemsCompleted                    0                       # Number of work items this cpu completed (Count)
system.cpu.instsAdded                        50695296                       # Number of instructions added to the IQ (excludes non-spec) (Count)
system.cpu.nonSpecInstsAdded                    43476                       # Number of non-speculative instructions added to the IQ (Count)
system.cpu.instsIssued                       48036529                       # Number of instructions issued (Count)
system.cpu.squashedInstsIssued                  46054                       # Number of squashed instructions issued (Count)
system.cpu.squashedInstsExamined              6360795                       # Number of squashed instructions iterated over during squash; mainly for profiling (Count)
system.cpu.squashedOperandsExamined          16177606                       # Number of squashed operands that are examined and possibly removed from graph (Count)
system.cpu.squashedNonSpecRemoved                1317                       # Number of squashed non-spec instructions that were removed (Count)
system.cpu.numIssuedDist::samples            23520599                       # Number of insts issued each cycle
system.cpu.numIssuedDist::mean               2.042317                       # Number of insts issued each cycle
system.cpu.numIssuedDist::stdev              2.309929                       # Number of insts issued each cycle
system.cpu.numIssuedDist::underflows                0      0.00%      0.00% # Number of insts issued each cycle
system.cpu.numIssuedDist::0                   9291224     39.50%     39.50% # Number of insts issued each cycle
system.cpu.numIssuedDist::1                   3819453     16.24%     55.74% # Number of insts issued each cycle
system.cpu.numIssuedDist::2                   1402146      5.96%     61.70% # Number of insts issued each cycle
system.cpu.numIssuedDist::3                   3611882     15.36%     77.06% # Number of insts issued each cycle
system.cpu.numIssuedDist::4                    921571      3.92%     80.98% # Number of insts issued each cycle
system.cpu.numIssuedDist::5                   1777141      7.56%     88.53% # Number of insts issued each cycle
system.cpu.numIssuedDist::6                   1731339      7.36%     95.89% # Number of insts issued each cycle
system.cpu.numIssuedDist::7                    109629      0.47%     96.36% # Number of insts issued each cycle
system.cpu.numIssuedDist::8                    856214      3.64%    100.00% # Number of insts issued each cycle
system.cpu.numIssuedDist::overflows                 0      0.00%    100.00% # Number of insts issued each cycle
system.cpu.numIssuedDist::min_value                 0                       # Number of insts issued each cycle
system.cpu.numIssuedDist::max_value                 8                       # Number of insts issued each cycle
system.cpu.numIssuedDist::total              23520599                       # Number of insts issued each cycle
system.cpu.statFuBusy::No_OpClass                   0      0.00%      0.00% # attempts to use FU when none available (Count)
system.cpu.statFuBusy::IntAlu                    8495      3.41%      3.41% # attempts to use FU when none available (Count)
system.cpu.statFuBusy::IntMult                      0      0.00%      3.41% # attempts to use FU when none available (Count)
system.cpu.statFuBusy::IntDiv                       0      0.00%      3.41% # attempts to use FU when none available (Count)
system.cpu.statFuBusy::FloatAdd                     0      0.00%      3.41% # attempts to use FU when none available (Count)
system.cpu.statFuBusy::FloatCmp                     0      0.00%      3.41% # attempts to use FU when none available (Count)
system.cpu.statFuBusy::FloatCvt                     0      0.00%      3.41% # attempts to use FU when none available (Count)
system.cpu.statFuBusy::FloatMult                    0      0.00%      3.41% # attempts to use FU when none available (Count)
system.cpu.statFuBusy::FloatMultAcc                 0      0.00%      3.41% # attempts to use FU when none available (Count)
system.cpu.statFuBusy::FloatDiv                     0      0.00%      3.41% # attempts to use FU when none available (Count)
system.cpu.statFuBusy::FloatMisc                    0      0.00%      3.41% # attempts to use FU when none available (Count)
system.cpu.statFuBusy::FloatSqrt                    0      0.00%      3.41% # attempts to use FU when none available (Count)
system.cpu.statFuBusy::SimdAdd                      0      0.00%      3.41% # attempts to use FU when none available (Count)
system.cpu.statFuBusy::SimdAddAcc                   0      0.00%      3.41% # attempts to use FU when none available (Count)
system.cpu.statFuBusy::SimdAlu                      0      0.00%      3.41% # attempts to use FU when none available (Count)
system.cpu.statFuBusy::SimdCmp                      0      0.00%      3.41% # attempts to use FU when none available (Count)
system.cpu.statFuBusy::SimdCvt                      0      0.00%      3.41% # attempts to use FU when none available (Count)
system.cpu.statFuBusy::SimdMisc                     0      0.00%      3.41% # attempts to use FU when none available (Count)
system.cpu.statFuBusy::SimdMult                     0      0.00%      3.41% # attempts to use FU when none available (Count)
system.cpu.statFuBusy::SimdMultAcc                  0      0.00%      3.41% # attempts to use FU when none available (Count)
system.cpu.statFuBusy::SimdShift                    0      0.00%      3.41% # attempts to use FU when none available (Count)
system.cpu.statFuBusy::SimdShiftAcc                 0      0.00%      3.41% # attempts to use FU when none available (Count)
system.cpu.statFuBusy::SimdDiv                      0      0.00%      3.41% # attempts to use FU when none available (Count)
system.cpu.statFuBusy::SimdSqrt                     0      0.00%      3.41% # attempts to use FU when none available (Count)
system.cpu.statFuBusy::SimdFloatAdd                 0      0.00%      3.41% # attempts to use FU when none available (Count)
system.cpu.statFuBusy::SimdFloatAlu                 0      0.00%      3.41% # attempts to use FU when none available (Count)
system.cpu.statFuBusy::SimdFloatCmp                 0      0.00%      3.41% # attempts to use FU when none available (Count)
system.cpu.statFuBusy::SimdFloatCvt                 0      0.00%      3.41% # attempts to use FU when none available (Count)
system.cpu.statFuBusy::SimdFloatDiv                 0      0.00%      3.41% # attempts to use FU when none available (Count)
system.cpu.statFuBusy::SimdFloatMisc                0      0.00%      3.41% # attempts to use FU when none available (Count)
system.cpu.statFuBusy::SimdFloatMult                0      0.00%      3.41% # attempts to use FU when none available (Count)
system.cpu.statFuBusy::SimdFloatMultAcc             0      0.00%      3.41% # attempts to use FU when none available (Count)
system.cpu.statFuBusy::SimdFloatSqrt                0      0.00%      3.41% # attempts to use FU when none available (Count)
system.cpu.statFuBusy::SimdReduceAdd                0      0.00%      3.41% # attempts to use FU when none available (Count)
system.cpu.statFuBusy::SimdReduceAlu                0      0.00%      3.41% # attempts to use FU when none available (Count)
system.cpu.statFuBusy::SimdReduceCmp                0      0.00%      3.41% # attempts to use FU when none available (Count)
system.cpu.statFuBusy::SimdFloatReduceAdd            0      0.00%      3.41% # attempts to use FU when none available (Count)
system.cpu.statFuBusy::SimdFloatReduceCmp            0      0.00%      3.41% # attempts to use FU when none available (Count)
system.cpu.statFuBusy::SimdAes                      0      0.00%      3.41% # attempts to use FU when none available (Count)
system.cpu.statFuBusy::SimdAesMix                   0      0.00%      3.41% # attempts to use FU when none available (Count)
system.cpu.statFuBusy::SimdSha1Hash                 0      0.00%      3.41% # attempts to use FU when none available (Count)
system.cpu.statFuBusy::SimdSha1Hash2                0      0.00%      3.41% # attempts to use FU when none available (Count)
system.cpu.statFuBusy::SimdSha256Hash               0      0.00%      3.41% # attempts to use FU when none available (Count)
system.cpu.statFuBusy::SimdSha256Hash2              0      0.00%      3.41% # attempts to use FU when none available (Count)
system.cpu.statFuBusy::SimdShaSigma2                0      0.00%      3.41% # attempts to use FU when none available (Count)
system.cpu.statFuBusy::SimdShaSigma3                0      0.00%      3.41% # attempts to use FU when none available (Count)
system.cpu.statFuBusy::SimdPredAlu                  0      0.00%      3.41% # attempts to use FU when none available (Count)
system.cpu.statFuBusy::MemRead                 111714     44.89%     48.31% # attempts to use FU when none available (Count)
system.cpu.statFuBusy::MemWrite                128635     51.69%    100.00% # attempts to use FU when none available (Count)
system.cpu.statFuBusy::FloatMemRead                 0      0.00%    100.00% # attempts to use FU when none available (Count)
system.cpu.statFuBusy::FloatMemWrite                0      0.00%    100.00% # attempts to use FU when none available (Count)
system.cpu.statFuBusy::IprAccess                    0      0.00%    100.00% # attempts to use FU when none available (Count)
system.cpu.statFuBusy::InstPrefetch                 0      0.00%    100.00% # attempts to use FU when none available (Count)
system.cpu.statIssuedInstType_0::No_OpClass        13673      0.03%      0.03% # Number of instructions issued per FU type, per thread (Count)
system.cpu.statIssuedInstType_0::IntAlu      32819834     68.32%     68.35% # Number of instructions issued per FU type, per thread (Count)
system.cpu.statIssuedInstType_0::IntMult        19596      0.04%     68.39% # Number of instructions issued per FU type, per thread (Count)
system.cpu.statIssuedInstType_0::IntDiv             0      0.00%     68.39% # Number of instructions issued per FU type, per thread (Count)
system.cpu.statIssuedInstType_0::FloatAdd            0      0.00%     68.39% # Number of instructions issued per FU type, per thread (Count)
system.cpu.statIssuedInstType_0::FloatCmp            0      0.00%     68.39% # Number of instructions issued per FU type, per thread (Count)
system.cpu.statIssuedInstType_0::FloatCvt            0      0.00%     68.39% # Number of instructions issued per FU type, per thread (Count)
system.cpu.statIssuedInstType_0::FloatMult            0      0.00%     68.39% # Number of instructions issued per FU type, per thread (Count)
system.cpu.statIssuedInstType_0::FloatMultAcc            0      0.00%     68.39% # Number of instructions issued per FU type, per thread (Count)
system.cpu.statIssuedInstType_0::FloatDiv            0      0.00%     68.39% # Number of instructions issued per FU type, per thread (Count)
system.cpu.statIssuedInstType_0::FloatMisc            0      0.00%     68.39% # Number of instructions issued per FU type, per thread (Count)
system.cpu.statIssuedInstType_0::FloatSqrt            0      0.00%     68.39% # Number of instructions issued per FU type, per thread (Count)
system.cpu.statIssuedInstType_0::SimdAdd            0      0.00%     68.39% # Number of instructions issued per FU type, per thread (Count)
system.cpu.statIssuedInstType_0::SimdAddAcc            0      0.00%     68.39% # Number of instructions issued per FU type, per thread (Count)
system.cpu.statIssuedInstType_0::SimdAlu            0      0.00%     68.39% # Number of instructions issued per FU type, per thread (Count)
system.cpu.statIssuedInstType_0::SimdCmp            0      0.00%     68.39% # Number of instructions issued per FU type, per thread (Count)
system.cpu.statIssuedInstType_0::SimdCvt            0      0.00%     68.39% # Number of instructions issued per FU type, per thread (Count)
system.cpu.statIssuedInstType_0::SimdMisc            0      0.00%     68.39% # Number of instructions issued per FU type, per thread (Count)
system.cpu.statIssuedInstType_0::SimdMult            0      0.00%     68.39% # Number of instructions issued per FU type, per thread (Count)
system.cpu.statIssuedInstType_0::SimdMultAcc            0      0.00%     68.39% # Number of instructions issued per FU type, per thread (Count)
system.cpu.statIssuedInstType_0::SimdShift            0      0.00%     68.39% # Number of instructions issued per FU type, per thread (Count)
system.cpu.statIssuedInstType_0::SimdShiftAcc            0      0.00%     68.39% # Number of instructions issued per FU type, per thread (Count)
system.cpu.statIssuedInstType_0::SimdDiv            0      0.00%     68.39% # Number of instructions issued per FU type, per thread (Count)
system.cpu.statIssuedInstType_0::SimdSqrt            0      0.00%     68.39% # Number of instructions issued per FU type, per thread (Count)
system.cpu.statIssuedInstType_0::SimdFloatAdd            0      0.00%     68.39% # Number of instructions issued per FU type, per thread (Count)
system.cpu.statIssuedInstType_0::SimdFloatAlu            0      0.00%     68.39% # Number of instructions issued per FU type, per thread (Count)
system.cpu.statIssuedInstType_0::SimdFloatCmp            0      0.00%     68.39% # Number of instructions issued per FU type, per thread (Count)
system.cpu.statIssuedInstType_0::SimdFloatCvt            0      0.00%     68.39% # Number of instructions issued per FU type, per thread (Count)
system.cpu.statIssuedInstType_0::SimdFloatDiv            0      0.00%     68.39% # Number of instructions issued per FU type, per thread (Count)
system.cpu.statIssuedInstType_0::SimdFloatMisc            0      0.00%     68.39% # Number of instructions issued per FU type, per thread (Count)
system.cpu.statIssuedInstType_0::SimdFloatMult            0      0.00%     68.39% # Number of instructions issued per FU type, per thread (Count)
system.cpu.statIssuedInstType_0::SimdFloatMultAcc            0      0.00%     68.39% # Number of instructions issued per FU type, per thread (Count)
system.cpu.statIssuedInstType_0::SimdFloatSqrt            0      0.00%     68.39% # Number of instructions issued per FU type, per thread (Count)
system.cpu.statIssuedInstType_0::SimdReduceAdd            0      0.00%     68.39% # Number of instructions issued per FU type, per thread (Count)
system.cpu.statIssuedInstType_0::SimdReduceAlu            0      0.00%     68.39% # Number of instructions issued per FU type, per thread (Count)
system.cpu.statIssuedInstType_0::SimdReduceCmp            0      0.00%     68.39% # Number of instructions issued per FU type, per thread (Count)
system.cpu.statIssuedInstType_0::SimdFloatReduceAdd            0      0.00%     68.39% # Number of instructions issued per FU type, per thread (Count)
system.cpu.statIssuedInstType_0::SimdFloatReduceCmp            0      0.00%     68.39% # Number of instructions issued per FU type, per thread (Count)
system.cpu.statIssuedInstType_0::SimdAes            0      0.00%     68.39% # Number of instructions issued per FU type, per thread (Count)
system.cpu.statIssuedInstType_0::SimdAesMix            0      0.00%     68.39% # Number of instructions issued per FU type, per thread (Count)
system.cpu.statIssuedInstType_0::SimdSha1Hash            0      0.00%     68.39% # Number of instructions issued per FU type, per thread (Count)
system.cpu.statIssuedInstType_0::SimdSha1Hash2            0      0.00%     68.39% # Number of instructions issued per FU type, per thread (Count)
system.cpu.statIssuedInstType_0::SimdSha256Hash            0      0.00%     68.39% # Number of instructions issued per FU type, per thread (Count)
system.cpu.statIssuedInstType_0::SimdSha256Hash2            0      0.00%     68.39% # Number of instructions issued per FU type, per thread (Count)
system.cpu.statIssuedInstType_0::SimdShaSigma2            0      0.00%     68.39% # Number of instructions issued per FU type, per thread (Count)
system.cpu.statIssuedInstType_0::SimdShaSigma3            0      0.00%     68.39% # Number of instructions issued per FU type, per thread (Count)
system.cpu.statIssuedInstType_0::SimdPredAlu            0      0.00%     68.39% # Number of instructions issued per FU type, per thread (Count)
system.cpu.statIssuedInstType_0::MemRead      9853020     20.51%     88.90% # Number of instructions issued per FU type, per thread (Count)
system.cpu.statIssuedInstType_0::MemWrite      5330406     11.10%    100.00% # Number of instructions issued per FU type, per thread (Count)
system.cpu.statIssuedInstType_0::FloatMemRead            0      0.00%    100.00% # Number of instructions issued per FU type, per thread (Count)
system.cpu.statIssuedInstType_0::FloatMemWrite            0      0.00%    100.00% # Number of instructions issued per FU type, per thread (Count)
system.cpu.statIssuedInstType_0::IprAccess            0      0.00%    100.00% # Number of instructions issued per FU type, per thread (Count)
system.cpu.statIssuedInstType_0::InstPrefetch            0      0.00%    100.00% # Number of instructions issued per FU type, per thread (Count)
system.cpu.statIssuedInstType_0::total       48036529                       # Number of instructions issued per FU type, per thread (Count)
system.cpu.issueRate                         2.038067                       # Inst issue rate ((Count/Cycle))
system.cpu.fuBusy                              248844                       # FU busy when requested (Count)
system.cpu.fuBusyRate                        0.005180                       # FU busy rate (busy events/executed inst) ((Count/Count))
system.cpu.intInstQueueReads                119888555                       # Number of integer instruction queue reads (Count)
system.cpu.intInstQueueWrites                57100214                       # Number of integer instruction queue writes (Count)
system.cpu.intInstQueueWakeupAccesses        46965658                       # Number of integer instruction queue wakeup accesses (Count)
system.cpu.fpInstQueueReads                         0                       # Number of floating instruction queue reads (Count)
system.cpu.fpInstQueueWrites                        0                       # Number of floating instruction queue writes (Count)
system.cpu.fpInstQueueWakeupAccesses                0                       # Number of floating instruction queue wakeup accesses (Count)
system.cpu.vecInstQueueReads                        0                       # Number of vector instruction queue reads (Count)
system.cpu.vecInstQueueWrites                       0                       # Number of vector instruction queue writes (Count)
system.cpu.vecInstQueueWakeupAccesses               0                       # Number of vector instruction queue wakeup accesses (Count)
system.cpu.intAluAccesses                    48271700                       # Number of integer alu accesses (Count)
system.cpu.fpAluAccesses                            0                       # Number of floating point alu accesses (Count)
system.cpu.vecAluAccesses                           0                       # Number of vector alu accesses (Count)
system.cpu.idleCycles                               0                       # Number of cycles IEW is idle (Cycle)
system.cpu.squashCycles                        356404                       # Number of cycles IEW is squashing (Cycle)
system.cpu.blockCycles                         677746                       # Number of cycles IEW is blocking (Cycle)
system.cpu.unblockCycles                         2722                       # Number of cycles IEW is unblocking (Cycle)
system.cpu.dispatchedInsts                   50738772                       # Number of instructions dispatched to IQ (Count)
system.cpu.dispSquashedInsts                   143477                       # Number of squashed instructions skipped by dispatch (Count)
system.cpu.dispLoadInsts                     10186547                       # Number of dispatched load instructions (Count)
system.cpu.dispStoreInsts                     5715750                       # Number of dispatched store instructions (Count)
system.cpu.dispNonSpecInsts                     22516                       # Number of dispatched non-speculative instructions (Count)
system.cpu.iqFullEvents                          1742                       # Number of times the IQ has become full, causing a stall (Count)
system.cpu.lsqFullEvents                          475                       # Number of times the LSQ has become full, causing a stall (Count)
system.cpu.memOrderViolationEvents                683                       # Number of memory order violations (Count)
system.cpu.predictedTakenIncorrect             184912                       # Number of branches that were predicted taken incorrectly (Count)
system.cpu.predictedNotTakenIncorrect          221836                       # Number of branches that were predicted not taken incorrectly (Count)
system.cpu.branchMispredicts                   406748                       # Number of branch mispredicts detected at execute (Count)
system.cpu.numInsts                          47480912                       # Number of executed instructions (Count)
system.cpu.numLoadInsts                       9728133                       # Number of load instructions executed (Count)
system.cpu.numSquashedInsts                    555617                       # Number of squashed instructions skipped in execute (Count)
system.cpu.numSwp                                   0                       # Number of swp insts executed (Count)
system.cpu.numNop                                   0                       # Number of nop insts executed (Count)
system.cpu.numRefs                           14878446                       # Number of memory reference insts executed (Count)
system.cpu.numBranches                       10640763                       # Number of branches executed (Count)
system.cpu.numStoreInsts                      5150313                       # Number of stores executed (Count)
system.cpu.numRate                           2.014493                       # Inst execution rate ((Count/Cycle))
system.cpu.instsToCommit                     47133698                       # Cumulative count of insts sent to commit (Count)
system.cpu.writebackCount                    46965658                       # Cumulative count of insts written-back (Count)
system.cpu.producerInst                      24538751                       # Number of instructions producing a value (Count)
system.cpu.consumerInst                      38896813                       # Number of instructions consuming a value (Count)
system.cpu.wbRate                            1.992632                       # Insts written-back per cycle ((Count/Cycle))
system.cpu.wbFanout                          0.630868                       # Average fanout of values written-back ((Count/Count))
system.cpu.timesIdled                             470                       # Number of times that the entire CPU went into an idle state and unscheduled itself (Count)
system.cpu.idleCycles                           49058                       # Total number of cycles that the CPU has spent unscheduled due to idling (Cycle)
system.cpu.committedInsts                    41841366                       # Number of Instructions Simulated (Count)
system.cpu.committedOps                      44377976                       # Number of Ops (including micro ops) Simulated (Count)
system.cpu.cpi                               0.563310                       # CPI: Cycles Per Instruction ((Cycle/Count))
system.cpu.totalCpi                          0.563310                       # CPI: Total CPI of All Threads ((Cycle/Count))
system.cpu.ipc                               1.775222                       # IPC: Instructions Per Cycle ((Count/Cycle))
system.cpu.totalIpc                          1.775222                       # IPC: Total IPC of All Threads ((Count/Cycle))
system.cpu.intRegfileReads                   48235752                       # Number of integer regfile reads (Count)
system.cpu.intRegfileWrites                  22086797                       # Number of integer regfile writes (Count)
system.cpu.vecRegfileReads                         16                       # number of vector regfile reads (Count)
system.cpu.ccRegfileReads                   170515377                       # number of cc regfile reads (Count)
system.cpu.ccRegfileWrites                   29772144                       # number of cc regfile writes (Count)
system.cpu.miscRegfileReads                  90665428                       # number of misc regfile reads (Count)
system.cpu.miscRegfileWrites                    83841                       # number of misc regfile writes (Count)
system.cpu.MemDepUnit__0.insertedLoads       10186547                       # Number of loads inserted to the mem dependence unit. (Count)
system.cpu.MemDepUnit__0.insertedStores       5715750                       # Number of stores inserted to the mem dependence unit. (Count)
system.cpu.MemDepUnit__0.conflictingLoads      1823077                       # Number of conflicting loads. (Count)
system.cpu.MemDepUnit__0.conflictingStores       231370                       # Number of conflicting stores. (Count)
system.cpu.MemDepUnit__1.insertedLoads              0                       # Number of loads inserted to the mem dependence unit. (Count)
system.cpu.MemDepUnit__1.insertedStores             0                       # Number of stores inserted to the mem dependence unit. (Count)
system.cpu.MemDepUnit__1.conflictingLoads            0                       # Number of conflicting loads. (Count)
system.cpu.MemDepUnit__1.conflictingStores            0                       # Number of conflicting stores. (Count)
system.cpu.MemDepUnit__2.insertedLoads              0                       # Number of loads inserted to the mem dependence unit. (Count)
system.cpu.MemDepUnit__2.insertedStores             0                       # Number of stores inserted to the mem dependence unit. (Count)
system.cpu.MemDepUnit__2.conflictingLoads            0                       # Number of conflicting loads. (Count)
system.cpu.MemDepUnit__2.conflictingStores            0                       # Number of conflicting stores. (Count)
system.cpu.MemDepUnit__3.insertedLoads              0                       # Number of loads inserted to the mem dependence unit. (Count)
system.cpu.MemDepUnit__3.insertedStores             0                       # Number of stores inserted to the mem dependence unit. (Count)
system.cpu.MemDepUnit__3.conflictingLoads            0                       # Number of conflicting loads. (Count)
system.cpu.MemDepUnit__3.conflictingStores            0                       # Number of conflicting stores. (Count)
system.cpu.branchPred.lookups                12390198                       # Number of BP lookups (Count)
system.cpu.branchPred.condPredicted          11138914                       # Number of conditional branches predicted (Count)
system.cpu.branchPred.condIncorrect            354662                       # Number of conditional branches incorrect (Count)
system.cpu.branchPred.BTBLookups              6896752                       # Number of BTB lookups (Count)
system.cpu.branchPred.BTBHits                 6211297                       # Number of BTB hits (Count)
system.cpu.branchPred.BTBHitRatio            0.900612                       # BTB Hit Ratio (Ratio)
system.cpu.branchPred.RASUsed                  323163                       # Number of times the RAS was used to get a target. (Count)
system.cpu.branchPred.RASIncorrect              41849                       # Number of incorrect RAS predictions. (Count)
system.cpu.branchPred.indirectLookups          274863                       # Number of indirect predictor lookups. (Count)
system.cpu.branchPred.indirectHits             219648                       # Number of indirect target hits. (Count)
system.cpu.branchPred.indirectMisses            55215                       # Number of indirect misses. (Count)
system.cpu.branchPred.indirectMispredicted          395                       # Number of mispredicted indirect branches. (Count)
system.cpu.commit.commitSquashedInsts         6360682                       # The number of squashed insts skipped by commit (Count)
system.cpu.commit.commitNonSpecStalls           42159                       # The number of times commit has been forced to stall to communicate backwards (Count)
system.cpu.commit.branchMispredicts            355602                       # The number of times a branch was mispredicted (Count)
system.cpu.commit.numCommittedDist::samples     22504192                       # Number of insts commited each cycle
system.cpu.commit.numCommittedDist::mean     1.971987                       # Number of insts commited each cycle
system.cpu.commit.numCommittedDist::stdev     2.320408                       # Number of insts commited each cycle
system.cpu.commit.numCommittedDist::underflows            0      0.00%      0.00% # Number of insts commited each cycle
system.cpu.commit.numCommittedDist::0         5955530     26.46%     26.46% # Number of insts commited each cycle
system.cpu.commit.numCommittedDist::1         6747545     29.98%     56.45% # Number of insts commited each cycle
system.cpu.commit.numCommittedDist::2         5303656     23.57%     80.02% # Number of insts commited each cycle
system.cpu.commit.numCommittedDist::3          375817      1.67%     81.68% # Number of insts commited each cycle
system.cpu.commit.numCommittedDist::4         1544164      6.86%     88.55% # Number of insts commited each cycle
system.cpu.commit.numCommittedDist::5          120939      0.54%     89.08% # Number of insts commited each cycle
system.cpu.commit.numCommittedDist::6          229420      1.02%     90.10% # Number of insts commited each cycle
system.cpu.commit.numCommittedDist::7           79171      0.35%     90.46% # Number of insts commited each cycle
system.cpu.commit.numCommittedDist::8         2147950      9.54%    100.00% # Number of insts commited each cycle
system.cpu.commit.numCommittedDist::overflows            0      0.00%    100.00% # Number of insts commited each cycle
system.cpu.commit.numCommittedDist::min_value            0                       # Number of insts commited each cycle
system.cpu.commit.numCommittedDist::max_value            8                       # Number of insts commited each cycle
system.cpu.commit.numCommittedDist::total     22504192                       # Number of insts commited each cycle
system.cpu.commit.instsCommitted             41841366                       # Number of instructions committed (Count)
system.cpu.commit.opsCommitted               44377976                       # Number of ops (including micro ops) committed (Count)
system.cpu.commit.memRefs                    13697992                       # Number of memory references committed (Count)
system.cpu.commit.loads                       8917925                       # Number of loads committed (Count)
system.cpu.commit.amos                              0                       # Number of atomic instructions committed (Count)
system.cpu.commit.membars                       20960                       # Number of memory barriers committed (Count)
system.cpu.commit.branches                   10103134                       # Number of branches committed (Count)
system.cpu.commit.vectorInstructions                0                       # Number of committed Vector instructions. (Count)
system.cpu.commit.floating                          0                       # Number of committed floating point instructions. (Count)
system.cpu.commit.integer                    34848648                       # Number of committed integer instructions. (Count)
system.cpu.commit.functionCalls                209372                       # Number of function calls committed. (Count)
system.cpu.commit.committedInstType_0::No_OpClass            0      0.00%      0.00% # Class of committed instruction (Count)
system.cpu.commit.committedInstType_0::IntAlu     30660516     69.09%     69.09% # Class of committed instruction (Count)
system.cpu.commit.committedInstType_0::IntMult        19468      0.04%     69.13% # Class of committed instruction (Count)
system.cpu.commit.committedInstType_0::IntDiv            0      0.00%     69.13% # Class of committed instruction (Count)
system.cpu.commit.committedInstType_0::FloatAdd            0      0.00%     69.13% # Class of committed instruction (Count)
system.cpu.commit.committedInstType_0::FloatCmp            0      0.00%     69.13% # Class of committed instruction (Count)
system.cpu.commit.committedInstType_0::FloatCvt            0      0.00%     69.13% # Class of committed instruction (Count)
system.cpu.commit.committedInstType_0::FloatMult            0      0.00%     69.13% # Class of committed instruction (Count)
system.cpu.commit.committedInstType_0::FloatMultAcc            0      0.00%     69.13% # Class of committed instruction (Count)
system.cpu.commit.committedInstType_0::FloatDiv            0      0.00%     69.13% # Class of committed instruction (Count)
system.cpu.commit.committedInstType_0::FloatMisc            0      0.00%     69.13% # Class of committed instruction (Count)
system.cpu.commit.committedInstType_0::FloatSqrt            0      0.00%     69.13% # Class of committed instruction (Count)
system.cpu.commit.committedInstType_0::SimdAdd            0      0.00%     69.13% # Class of committed instruction (Count)
system.cpu.commit.committedInstType_0::SimdAddAcc            0      0.00%     69.13% # Class of committed instruction (Count)
system.cpu.commit.committedInstType_0::SimdAlu            0      0.00%     69.13% # Class of committed instruction (Count)
system.cpu.commit.committedInstType_0::SimdCmp            0      0.00%     69.13% # Class of committed instruction (Count)
system.cpu.commit.committedInstType_0::SimdCvt            0      0.00%     69.13% # Class of committed instruction (Count)
system.cpu.commit.committedInstType_0::SimdMisc            0      0.00%     69.13% # Class of committed instruction (Count)
system.cpu.commit.committedInstType_0::SimdMult            0      0.00%     69.13% # Class of committed instruction (Count)
system.cpu.commit.committedInstType_0::SimdMultAcc            0      0.00%     69.13% # Class of committed instruction (Count)
system.cpu.commit.committedInstType_0::SimdShift            0      0.00%     69.13% # Class of committed instruction (Count)
system.cpu.commit.committedInstType_0::SimdShiftAcc            0      0.00%     69.13% # Class of committed instruction (Count)
system.cpu.commit.committedInstType_0::SimdDiv            0      0.00%     69.13% # Class of committed instruction (Count)
system.cpu.commit.committedInstType_0::SimdSqrt            0      0.00%     69.13% # Class of committed instruction (Count)
system.cpu.commit.committedInstType_0::SimdFloatAdd            0      0.00%     69.13% # Class of committed instruction (Count)
system.cpu.commit.committedInstType_0::SimdFloatAlu            0      0.00%     69.13% # Class of committed instruction (Count)
system.cpu.commit.committedInstType_0::SimdFloatCmp            0      0.00%     69.13% # Class of committed instruction (Count)
system.cpu.commit.committedInstType_0::SimdFloatCvt            0      0.00%     69.13% # Class of committed instruction (Count)
system.cpu.commit.committedInstType_0::SimdFloatDiv            0      0.00%     69.13% # Class of committed instruction (Count)
system.cpu.commit.committedInstType_0::SimdFloatMisc            0      0.00%     69.13% # Class of committed instruction (Count)
system.cpu.commit.committedInstType_0::SimdFloatMult            0      0.00%     69.13% # Class of committed instruction (Count)
system.cpu.commit.committedInstType_0::SimdFloatMultAcc            0      0.00%     69.13% # Class of committed instruction (Count)
system.cpu.commit.committedInstType_0::SimdFloatSqrt            0      0.00%     69.13% # Class of committed instruction (Count)
system.cpu.commit.committedInstType_0::SimdReduceAdd            0      0.00%     69.13% # Class of committed instruction (Count)
system.cpu.commit.committedInstType_0::SimdReduceAlu            0      0.00%     69.13% # Class of committed instruction (Count)
system.cpu.commit.committedInstType_0::SimdReduceCmp            0      0.00%     69.13% # Class of committed instruction (Count)
system.cpu.commit.committedInstType_0::SimdFloatReduceAdd            0      0.00%     69.13% # Class of committed instruction (Count)
system.cpu.commit.committedInstType_0::SimdFloatReduceCmp            0      0.00%     69.13% # Class of committed instruction (Count)
system.cpu.commit.committedInstType_0::SimdAes            0      0.00%     69.13% # Class of committed instruction (Count)
system.cpu.commit.committedInstType_0::SimdAesMix            0      0.00%     69.13% # Class of committed instruction (Count)
system.cpu.commit.committedInstType_0::SimdSha1Hash            0      0.00%     69.13% # Class of committed instruction (Count)
system.cpu.commit.committedInstType_0::SimdSha1Hash2            0      0.00%     69.13% # Class of committed instruction (Count)
system.cpu.commit.committedInstType_0::SimdSha256Hash            0      0.00%     69.13% # Class of committed instruction (Count)
system.cpu.commit.committedInstType_0::SimdSha256Hash2            0      0.00%     69.13% # Class of committed instruction (Count)
system.cpu.commit.committedInstType_0::SimdShaSigma2            0      0.00%     69.13% # Class of committed instruction (Count)
system.cpu.commit.committedInstType_0::SimdShaSigma3            0      0.00%     69.13% # Class of committed instruction (Count)
system.cpu.commit.committedInstType_0::SimdPredAlu            0      0.00%     69.13% # Class of committed instruction (Count)
system.cpu.commit.committedInstType_0::MemRead      8917925     20.10%     89.23% # Class of committed instruction (Count)
system.cpu.commit.committedInstType_0::MemWrite      4780067     10.77%    100.00% # Class of committed instruction (Count)
system.cpu.commit.committedInstType_0::FloatMemRead            0      0.00%    100.00% # Class of committed instruction (Count)
system.cpu.commit.committedInstType_0::FloatMemWrite            0      0.00%    100.00% # Class of committed instruction (Count)
system.cpu.commit.committedInstType_0::IprAccess            0      0.00%    100.00% # Class of committed instruction (Count)
system.cpu.commit.committedInstType_0::InstPrefetch            0      0.00%    100.00% # Class of committed instruction (Count)
system.cpu.commit.committedInstType_0::total     44377976                       # Class of committed instruction (Count)
system.cpu.commit.commitEligibleSamples       2147950                       # number cycles where commit BW limit reached (Cycle)
system.cpu.dcache.demandHits::cpu.data       14172256                       # number of demand (read+write) hits (Count)
system.cpu.dcache.demandHits::total          14172256                       # number of demand (read+write) hits (Count)
system.cpu.dcache.overallHits::cpu.data      14172256                       # number of overall hits (Count)
system.cpu.dcache.overallHits::total         14172256                       # number of overall hits (Count)
system.cpu.dcache.demandMisses::cpu.data        78405                       # number of demand (read+write) misses (Count)
system.cpu.dcache.demandMisses::total           78405                       # number of demand (read+write) misses (Count)
system.cpu.dcache.overallMisses::cpu.data        78405                       # number of overall misses (Count)
system.cpu.dcache.overallMisses::total          78405                       # number of overall misses (Count)
system.cpu.dcache.demandMissLatency::cpu.data    932415493                       # number of demand (read+write) miss ticks (Tick)
system.cpu.dcache.demandMissLatency::total    932415493                       # number of demand (read+write) miss ticks (Tick)
system.cpu.dcache.overallMissLatency::cpu.data    932415493                       # number of overall miss ticks (Tick)
system.cpu.dcache.overallMissLatency::total    932415493                       # number of overall miss ticks (Tick)
system.cpu.dcache.demandAccesses::cpu.data     14250661                       # number of demand (read+write) accesses (Count)
system.cpu.dcache.demandAccesses::total      14250661                       # number of demand (read+write) accesses (Count)
system.cpu.dcache.overallAccesses::cpu.data     14250661                       # number of overall (read+write) accesses (Count)
system.cpu.dcache.overallAccesses::total     14250661                       # number of overall (read+write) accesses (Count)
system.cpu.dcache.demandMissRate::cpu.data     0.005502                       # miss rate for demand accesses (Ratio)
system.cpu.dcache.demandMissRate::total      0.005502                       # miss rate for demand accesses (Ratio)
system.cpu.dcache.overallMissRate::cpu.data     0.005502                       # miss rate for overall accesses (Ratio)
system.cpu.dcache.overallMissRate::total     0.005502                       # miss rate for overall accesses (Ratio)
system.cpu.dcache.demandAvgMissLatency::cpu.data 11892.296320                       # average overall miss latency ((Cycle/Count))
system.cpu.dcache.demandAvgMissLatency::total 11892.296320                       # average overall miss latency ((Cycle/Count))
system.cpu.dcache.overallAvgMissLatency::cpu.data 11892.296320                       # average overall miss latency ((Cycle/Count))
system.cpu.dcache.overallAvgMissLatency::total 11892.296320                       # average overall miss latency ((Cycle/Count))
system.cpu.dcache.blockedCycles::no_mshrs         1361                       # number of cycles access was blocked (Cycle)
system.cpu.dcache.blockedCycles::no_targets            0                       # number of cycles access was blocked (Cycle)
system.cpu.dcache.blockedCauses::no_mshrs           18                       # number of times access was blocked (Count)
system.cpu.dcache.blockedCauses::no_targets            0                       # number of times access was blocked (Count)
system.cpu.dcache.avgBlocked::no_mshrs      75.611111                       # average number of cycles each access was blocked ((Cycle/Count))
system.cpu.dcache.avgBlocked::no_targets          nan                       # average number of cycles each access was blocked ((Cycle/Count))
system.cpu.dcache.writebacks::writebacks        19256                       # number of writebacks (Count)
system.cpu.dcache.writebacks::total             19256                       # number of writebacks (Count)
system.cpu.dcache.demandMshrHits::cpu.data        55076                       # number of demand (read+write) MSHR hits (Count)
system.cpu.dcache.demandMshrHits::total         55076                       # number of demand (read+write) MSHR hits (Count)
system.cpu.dcache.overallMshrHits::cpu.data        55076                       # number of overall MSHR hits (Count)
system.cpu.dcache.overallMshrHits::total        55076                       # number of overall MSHR hits (Count)
system.cpu.dcache.demandMshrMisses::cpu.data        23329                       # number of demand (read+write) MSHR misses (Count)
system.cpu.dcache.demandMshrMisses::total        23329                       # number of demand (read+write) MSHR misses (Count)
system.cpu.dcache.overallMshrMisses::cpu.data        23329                       # number of overall MSHR misses (Count)
system.cpu.dcache.overallMshrMisses::total        23329                       # number of overall MSHR misses (Count)
system.cpu.dcache.demandMshrMissLatency::cpu.data    366263499                       # number of demand (read+write) MSHR miss ticks (Tick)
system.cpu.dcache.demandMshrMissLatency::total    366263499                       # number of demand (read+write) MSHR miss ticks (Tick)
system.cpu.dcache.overallMshrMissLatency::cpu.data    366263499                       # number of overall MSHR miss ticks (Tick)
system.cpu.dcache.overallMshrMissLatency::total    366263499                       # number of overall MSHR miss ticks (Tick)
system.cpu.dcache.demandMshrMissRate::cpu.data     0.001637                       # mshr miss ratio for demand accesses (Ratio)
system.cpu.dcache.demandMshrMissRate::total     0.001637                       # mshr miss ratio for demand accesses (Ratio)
system.cpu.dcache.overallMshrMissRate::cpu.data     0.001637                       # mshr miss ratio for overall accesses (Ratio)
system.cpu.dcache.overallMshrMissRate::total     0.001637                       # mshr miss ratio for overall accesses (Ratio)
system.cpu.dcache.demandAvgMshrMissLatency::cpu.data 15699.922800                       # average overall mshr miss latency ((Cycle/Count))
system.cpu.dcache.demandAvgMshrMissLatency::total 15699.922800                       # average overall mshr miss latency ((Cycle/Count))
system.cpu.dcache.overallAvgMshrMissLatency::cpu.data 15699.922800                       # average overall mshr miss latency ((Cycle/Count))
system.cpu.dcache.overallAvgMshrMissLatency::total 15699.922800                       # average overall mshr miss latency ((Cycle/Count))
system.cpu.dcache.replacements                  22449                       # number of replacements (Count)
system.cpu.dcache.LoadLockedReq.hits::cpu.data        21832                       # number of LoadLockedReq hits (Count)
system.cpu.dcache.LoadLockedReq.hits::total        21832                       # number of LoadLockedReq hits (Count)
system.cpu.dcache.LoadLockedReq.misses::cpu.data            3                       # number of LoadLockedReq misses (Count)
system.cpu.dcache.LoadLockedReq.misses::total            3                       # number of LoadLockedReq misses (Count)
system.cpu.dcache.LoadLockedReq.missLatency::cpu.data        93500                       # number of LoadLockedReq miss ticks (Tick)
system.cpu.dcache.LoadLockedReq.missLatency::total        93500                       # number of LoadLockedReq miss ticks (Tick)
system.cpu.dcache.LoadLockedReq.accesses::cpu.data        21835                       # number of LoadLockedReq accesses(hits+misses) (Count)
system.cpu.dcache.LoadLockedReq.accesses::total        21835                       # number of LoadLockedReq accesses(hits+misses) (Count)
system.cpu.dcache.LoadLockedReq.missRate::cpu.data     0.000137                       # miss rate for LoadLockedReq accesses (Ratio)
system.cpu.dcache.LoadLockedReq.missRate::total     0.000137                       # miss rate for LoadLockedReq accesses (Ratio)
system.cpu.dcache.LoadLockedReq.avgMissLatency::cpu.data 31166.666667                       # average LoadLockedReq miss latency ((Tick/Count))
system.cpu.dcache.LoadLockedReq.avgMissLatency::total 31166.666667                       # average LoadLockedReq miss latency ((Tick/Count))
system.cpu.dcache.LoadLockedReq.mshrHits::cpu.data            3                       # number of LoadLockedReq MSHR hits (Count)
system.cpu.dcache.LoadLockedReq.mshrHits::total            3                       # number of LoadLockedReq MSHR hits (Count)
system.cpu.dcache.ReadReq.hits::cpu.data      9452744                       # number of ReadReq hits (Count)
system.cpu.dcache.ReadReq.hits::total         9452744                       # number of ReadReq hits (Count)
system.cpu.dcache.ReadReq.misses::cpu.data        75749                       # number of ReadReq misses (Count)
system.cpu.dcache.ReadReq.misses::total         75749                       # number of ReadReq misses (Count)
system.cpu.dcache.ReadReq.missLatency::cpu.data    788798500                       # number of ReadReq miss ticks (Tick)
system.cpu.dcache.ReadReq.missLatency::total    788798500                       # number of ReadReq miss ticks (Tick)
system.cpu.dcache.ReadReq.accesses::cpu.data      9528493                       # number of ReadReq accesses(hits+misses) (Count)
system.cpu.dcache.ReadReq.accesses::total      9528493                       # number of ReadReq accesses(hits+misses) (Count)
system.cpu.dcache.ReadReq.missRate::cpu.data     0.007950                       # miss rate for ReadReq accesses (Ratio)
system.cpu.dcache.ReadReq.missRate::total     0.007950                       # miss rate for ReadReq accesses (Ratio)
system.cpu.dcache.ReadReq.avgMissLatency::cpu.data 10413.318988                       # average ReadReq miss latency ((Tick/Count))
system.cpu.dcache.ReadReq.avgMissLatency::total 10413.318988                       # average ReadReq miss latency ((Tick/Count))
system.cpu.dcache.ReadReq.mshrHits::cpu.data        53559                       # number of ReadReq MSHR hits (Count)
system.cpu.dcache.ReadReq.mshrHits::total        53559                       # number of ReadReq MSHR hits (Count)
system.cpu.dcache.ReadReq.mshrMisses::cpu.data        22190                       # number of ReadReq MSHR misses (Count)
system.cpu.dcache.ReadReq.mshrMisses::total        22190                       # number of ReadReq MSHR misses (Count)
system.cpu.dcache.ReadReq.mshrMissLatency::cpu.data    289958500                       # number of ReadReq MSHR miss ticks (Tick)
system.cpu.dcache.ReadReq.mshrMissLatency::total    289958500                       # number of ReadReq MSHR miss ticks (Tick)
system.cpu.dcache.ReadReq.mshrMissRate::cpu.data     0.002329                       # mshr miss rate for ReadReq accesses (Ratio)
system.cpu.dcache.ReadReq.mshrMissRate::total     0.002329                       # mshr miss rate for ReadReq accesses (Ratio)
system.cpu.dcache.ReadReq.avgMshrMissLatency::cpu.data 13067.079766                       # average ReadReq mshr miss latency ((Tick/Count))
system.cpu.dcache.ReadReq.avgMshrMissLatency::total 13067.079766                       # average ReadReq mshr miss latency ((Tick/Count))
system.cpu.dcache.StoreCondReq.hits::cpu.data        20960                       # number of StoreCondReq hits (Count)
system.cpu.dcache.StoreCondReq.hits::total        20960                       # number of StoreCondReq hits (Count)
system.cpu.dcache.StoreCondReq.accesses::cpu.data        20960                       # number of StoreCondReq accesses(hits+misses) (Count)
system.cpu.dcache.StoreCondReq.accesses::total        20960                       # number of StoreCondReq accesses(hits+misses) (Count)
system.cpu.dcache.WriteReq.hits::cpu.data      4719512                       # number of WriteReq hits (Count)
system.cpu.dcache.WriteReq.hits::total        4719512                       # number of WriteReq hits (Count)
system.cpu.dcache.WriteReq.misses::cpu.data         2656                       # number of WriteReq misses (Count)
system.cpu.dcache.WriteReq.misses::total         2656                       # number of WriteReq misses (Count)
system.cpu.dcache.WriteReq.missLatency::cpu.data    143616993                       # number of WriteReq miss ticks (Tick)
system.cpu.dcache.WriteReq.missLatency::total    143616993                       # number of WriteReq miss ticks (Tick)
system.cpu.dcache.WriteReq.accesses::cpu.data      4722168                       # number of WriteReq accesses(hits+misses) (Count)
system.cpu.dcache.WriteReq.accesses::total      4722168                       # number of WriteReq accesses(hits+misses) (Count)
system.cpu.dcache.WriteReq.missRate::cpu.data     0.000562                       # miss rate for WriteReq accesses (Ratio)
system.cpu.dcache.WriteReq.missRate::total     0.000562                       # miss rate for WriteReq accesses (Ratio)
system.cpu.dcache.WriteReq.avgMissLatency::cpu.data 54072.663027                       # average WriteReq miss latency ((Tick/Count))
system.cpu.dcache.WriteReq.avgMissLatency::total 54072.663027                       # average WriteReq miss latency ((Tick/Count))
system.cpu.dcache.WriteReq.mshrHits::cpu.data         1517                       # number of WriteReq MSHR hits (Count)
system.cpu.dcache.WriteReq.mshrHits::total         1517                       # number of WriteReq MSHR hits (Count)
system.cpu.dcache.WriteReq.mshrMisses::cpu.data         1139                       # number of WriteReq MSHR misses (Count)
system.cpu.dcache.WriteReq.mshrMisses::total         1139                       # number of WriteReq MSHR misses (Count)
system.cpu.dcache.WriteReq.mshrMissLatency::cpu.data     76304999                       # number of WriteReq MSHR miss ticks (Tick)
system.cpu.dcache.WriteReq.mshrMissLatency::total     76304999                       # number of WriteReq MSHR miss ticks (Tick)
system.cpu.dcache.WriteReq.mshrMissRate::cpu.data     0.000241                       # mshr miss rate for WriteReq accesses (Ratio)
system.cpu.dcache.WriteReq.mshrMissRate::total     0.000241                       # mshr miss rate for WriteReq accesses (Ratio)
system.cpu.dcache.WriteReq.avgMshrMissLatency::cpu.data 66992.975417                       # average WriteReq mshr miss latency ((Tick/Count))
system.cpu.dcache.WriteReq.avgMshrMissLatency::total 66992.975417                       # average WriteReq mshr miss latency ((Tick/Count))
system.cpu.dcache.power_state.pwrStateResidencyTicks::UNDEFINED  11784828000                       # Cumulative time (in ticks) in various power states (Tick)
system.cpu.dcache.tags.tagsInUse           809.516076                       # Average ticks per tags in use ((Tick/Count))
system.cpu.dcache.tags.totalRefs             14238377                       # Total number of references to valid blocks. (Count)
system.cpu.dcache.tags.sampledRefs              23329                       # Sample count of references to valid blocks. (Count)
system.cpu.dcache.tags.avgRefs             610.329504                       # Average number of references to valid blocks. ((Count/Count))
system.cpu.dcache.tags.warmupTick              176500                       # The tick when the warmup percentage was hit. (Tick)
system.cpu.dcache.tags.occupancies::cpu.data   809.516076                       # Average occupied blocks per tick, per requestor ((Count/Tick))
system.cpu.dcache.tags.avgOccs::cpu.data     0.790543                       # Average percentage of cache occupancy ((Ratio/Tick))
system.cpu.dcache.tags.avgOccs::total        0.790543                       # Average percentage of cache occupancy ((Ratio/Tick))
system.cpu.dcache.tags.occupanciesTaskId::1024          880                       # Occupied blocks per task id (Count)
system.cpu.dcache.tags.ageTaskId_1024::0           33                       # Occupied blocks per task id, per block age (Count)
system.cpu.dcache.tags.ageTaskId_1024::1           62                       # Occupied blocks per task id, per block age (Count)
system.cpu.dcache.tags.ageTaskId_1024::2           77                       # Occupied blocks per task id, per block age (Count)
system.cpu.dcache.tags.ageTaskId_1024::3          317                       # Occupied blocks per task id, per block age (Count)
system.cpu.dcache.tags.ageTaskId_1024::4          391                       # Occupied blocks per task id, per block age (Count)
system.cpu.dcache.tags.ratioOccsTaskId::1024     0.859375                       # Ratio of occupied blocks and all blocks, per task id (Ratio)
system.cpu.dcache.tags.tagAccesses           28610241                       # Number of tag accesses (Count)
system.cpu.dcache.tags.dataAccesses          28610241                       # Number of data accesses (Count)
system.cpu.dcache.tags.power_state.pwrStateResidencyTicks::UNDEFINED  11784828000                       # Cumulative time (in ticks) in various power states (Tick)
system.cpu.decode.idleCycles                  9730968                       # Number of cycles decode is idle (Cycle)
system.cpu.decode.blockedCycles               1301858                       # Number of cycles decode is blocked (Cycle)
system.cpu.decode.runCycles                  11856473                       # Number of cycles decode is running (Cycle)
system.cpu.decode.unblockCycles                274896                       # Number of cycles decode is unblocking (Cycle)
system.cpu.decode.squashCycles                 356404                       # Number of cycles decode is squashing (Cycle)
system.cpu.decode.branchResolved              6115652                       # Number of times decode resolved a branch (Count)
system.cpu.decode.branchMispred                 10514                       # Number of times decode detected a branch misprediction (Count)
system.cpu.decode.decodedInsts               54500985                       # Number of instructions handled by decode (Count)
system.cpu.decode.squashedInsts                 51887                       # Number of squashed instructions handled by decode (Count)
system.cpu.fetch.icacheStallCycles           10085757                       # Number of cycles fetch is stalled on an Icache miss (Cycle)
system.cpu.fetch.insts                       52361033                       # Number of instructions fetch has processed (Count)
system.cpu.fetch.branches                    12390198                       # Number of branches that fetch encountered (Count)
system.cpu.fetch.predictedBranches            6754108                       # Number of branches that fetch has predicted taken (Count)
system.cpu.fetch.cycles                      12964629                       # Number of cycles fetch has run and was not squashing or blocked (Cycle)
system.cpu.fetch.squashCycles                  733798                       # Number of cycles fetch has spent squashing (Cycle)
system.cpu.fetch.miscStallCycles                11433                       # Number of cycles fetch has spent waiting on interrupts, or bad addresses, or out of MSHRs (Cycle)
system.cpu.fetch.pendingTrapStallCycles         91820                       # Number of stall cycles due to pending traps (Cycle)
system.cpu.fetch.icacheWaitRetryStallCycles           61                       # Number of stall cycles due to full MSHR (Cycle)
system.cpu.fetch.cacheLines                   9878280                       # Number of cache lines fetched (Count)
system.cpu.fetch.icacheSquashes                131497                       # Number of outstanding Icache misses that were squashed (Count)
system.cpu.fetch.nisnDist::samples           23520599                       # Number of instructions fetched each cycle (Total)
system.cpu.fetch.nisnDist::mean              2.382069                       # Number of instructions fetched each cycle (Total)
system.cpu.fetch.nisnDist::stdev             2.888438                       # Number of instructions fetched each cycle (Total)
system.cpu.fetch.nisnDist::underflows               0      0.00%      0.00% # Number of instructions fetched each cycle (Total)
system.cpu.fetch.nisnDist::0                 10981834     46.69%     46.69% # Number of instructions fetched each cycle (Total)
system.cpu.fetch.nisnDist::1                  2277025      9.68%     56.37% # Number of instructions fetched each cycle (Total)
system.cpu.fetch.nisnDist::2                   594854      2.53%     58.90% # Number of instructions fetched each cycle (Total)
system.cpu.fetch.nisnDist::3                  2150300      9.14%     68.04% # Number of instructions fetched each cycle (Total)
system.cpu.fetch.nisnDist::4                  1947487      8.28%     76.32% # Number of instructions fetched each cycle (Total)
system.cpu.fetch.nisnDist::5                  1858721      7.90%     84.22% # Number of instructions fetched each cycle (Total)
system.cpu.fetch.nisnDist::6                   221222      0.94%     85.17% # Number of instructions fetched each cycle (Total)
system.cpu.fetch.nisnDist::7                   214070      0.91%     86.08% # Number of instructions fetched each cycle (Total)
system.cpu.fetch.nisnDist::8                  3275086     13.92%    100.00% # Number of instructions fetched each cycle (Total)
system.cpu.fetch.nisnDist::overflows                0      0.00%    100.00% # Number of instructions fetched each cycle (Total)
system.cpu.fetch.nisnDist::min_value                0                       # Number of instructions fetched each cycle (Total)
system.cpu.fetch.nisnDist::max_value                8                       # Number of instructions fetched each cycle (Total)
system.cpu.fetch.nisnDist::total             23520599                       # Number of instructions fetched each cycle (Total)
system.cpu.fetch.branchRate                  0.525684                       # Number of branch fetches per cycle (Ratio)
system.cpu.fetch.rate                        2.221544                       # Number of inst fetches per cycle ((Count/Cycle))
system.cpu.icache.demandHits::cpu.inst        9877060                       # number of demand (read+write) hits (Count)
system.cpu.icache.demandHits::total           9877060                       # number of demand (read+write) hits (Count)
system.cpu.icache.overallHits::cpu.inst       9877060                       # number of overall hits (Count)
system.cpu.icache.overallHits::total          9877060                       # number of overall hits (Count)
system.cpu.icache.demandMisses::cpu.inst         1220                       # number of demand (read+write) misses (Count)
system.cpu.icache.demandMisses::total            1220                       # number of demand (read+write) misses (Count)
system.cpu.icache.overallMisses::cpu.inst         1220                       # number of overall misses (Count)
system.cpu.icache.overallMisses::total           1220                       # number of overall misses (Count)
system.cpu.icache.demandMissLatency::cpu.inst     72676500                       # number of demand (read+write) miss ticks (Tick)
system.cpu.icache.demandMissLatency::total     72676500                       # number of demand (read+write) miss ticks (Tick)
system.cpu.icache.overallMissLatency::cpu.inst     72676500                       # number of overall miss ticks (Tick)
system.cpu.icache.overallMissLatency::total     72676500                       # number of overall miss ticks (Tick)
system.cpu.icache.demandAccesses::cpu.inst      9878280                       # number of demand (read+write) accesses (Count)
system.cpu.icache.demandAccesses::total       9878280                       # number of demand (read+write) accesses (Count)
system.cpu.icache.overallAccesses::cpu.inst      9878280                       # number of overall (read+write) accesses (Count)
system.cpu.icache.overallAccesses::total      9878280                       # number of overall (read+write) accesses (Count)
system.cpu.icache.demandMissRate::cpu.inst     0.000124                       # miss rate for demand accesses (Ratio)
system.cpu.icache.demandMissRate::total      0.000124                       # miss rate for demand accesses (Ratio)
system.cpu.icache.overallMissRate::cpu.inst     0.000124                       # miss rate for overall accesses (Ratio)
system.cpu.icache.overallMissRate::total     0.000124                       # miss rate for overall accesses (Ratio)
system.cpu.icache.demandAvgMissLatency::cpu.inst 59570.901639                       # average overall miss latency ((Cycle/Count))
system.cpu.icache.demandAvgMissLatency::total 59570.901639                       # average overall miss latency ((Cycle/Count))
system.cpu.icache.overallAvgMissLatency::cpu.inst 59570.901639                       # average overall miss latency ((Cycle/Count))
system.cpu.icache.overallAvgMissLatency::total 59570.901639                       # average overall miss latency ((Cycle/Count))
system.cpu.icache.blockedCycles::no_mshrs          550                       # number of cycles access was blocked (Cycle)
system.cpu.icache.blockedCycles::no_targets            0                       # number of cycles access was blocked (Cycle)
system.cpu.icache.blockedCauses::no_mshrs           10                       # number of times access was blocked (Count)
system.cpu.icache.blockedCauses::no_targets            0                       # number of times access was blocked (Count)
system.cpu.icache.avgBlocked::no_mshrs             55                       # average number of cycles each access was blocked ((Cycle/Count))
system.cpu.icache.avgBlocked::no_targets          nan                       # average number of cycles each access was blocked ((Cycle/Count))
system.cpu.icache.writebacks::writebacks          501                       # number of writebacks (Count)
system.cpu.icache.writebacks::total               501                       # number of writebacks (Count)
system.cpu.icache.demandMshrHits::cpu.inst          256                       # number of demand (read+write) MSHR hits (Count)
system.cpu.icache.demandMshrHits::total           256                       # number of demand (read+write) MSHR hits (Count)
system.cpu.icache.overallMshrHits::cpu.inst          256                       # number of overall MSHR hits (Count)
system.cpu.icache.overallMshrHits::total          256                       # number of overall MSHR hits (Count)
system.cpu.icache.demandMshrMisses::cpu.inst          964                       # number of demand (read+write) MSHR misses (Count)
system.cpu.icache.demandMshrMisses::total          964                       # number of demand (read+write) MSHR misses (Count)
system.cpu.icache.overallMshrMisses::cpu.inst          964                       # number of overall MSHR misses (Count)
system.cpu.icache.overallMshrMisses::total          964                       # number of overall MSHR misses (Count)
system.cpu.icache.demandMshrMissLatency::cpu.inst     58899500                       # number of demand (read+write) MSHR miss ticks (Tick)
system.cpu.icache.demandMshrMissLatency::total     58899500                       # number of demand (read+write) MSHR miss ticks (Tick)
system.cpu.icache.overallMshrMissLatency::cpu.inst     58899500                       # number of overall MSHR miss ticks (Tick)
system.cpu.icache.overallMshrMissLatency::total     58899500                       # number of overall MSHR miss ticks (Tick)
system.cpu.icache.demandMshrMissRate::cpu.inst     0.000098                       # mshr miss ratio for demand accesses (Ratio)
system.cpu.icache.demandMshrMissRate::total     0.000098                       # mshr miss ratio for demand accesses (Ratio)
system.cpu.icache.overallMshrMissRate::cpu.inst     0.000098                       # mshr miss ratio for overall accesses (Ratio)
system.cpu.icache.overallMshrMissRate::total     0.000098                       # mshr miss ratio for overall accesses (Ratio)
system.cpu.icache.demandAvgMshrMissLatency::cpu.inst 61099.066390                       # average overall mshr miss latency ((Cycle/Count))
system.cpu.icache.demandAvgMshrMissLatency::total 61099.066390                       # average overall mshr miss latency ((Cycle/Count))
system.cpu.icache.overallAvgMshrMissLatency::cpu.inst 61099.066390                       # average overall mshr miss latency ((Cycle/Count))
system.cpu.icache.overallAvgMshrMissLatency::total 61099.066390                       # average overall mshr miss latency ((Cycle/Count))
system.cpu.icache.replacements                    501                       # number of replacements (Count)
system.cpu.icache.ReadReq.hits::cpu.inst      9877060                       # number of ReadReq hits (Count)
system.cpu.icache.ReadReq.hits::total         9877060                       # number of ReadReq hits (Count)
system.cpu.icache.ReadReq.misses::cpu.inst         1220                       # number of ReadReq misses (Count)
system.cpu.icache.ReadReq.misses::total          1220                       # number of ReadReq misses (Count)
system.cpu.icache.ReadReq.missLatency::cpu.inst     72676500                       # number of ReadReq miss ticks (Tick)
system.cpu.icache.ReadReq.missLatency::total     72676500                       # number of ReadReq miss ticks (Tick)
system.cpu.icache.ReadReq.accesses::cpu.inst      9878280                       # number of ReadReq accesses(hits+misses) (Count)
system.cpu.icache.ReadReq.accesses::total      9878280                       # number of ReadReq accesses(hits+misses) (Count)
system.cpu.icache.ReadReq.missRate::cpu.inst     0.000124                       # miss rate for ReadReq accesses (Ratio)
system.cpu.icache.ReadReq.missRate::total     0.000124                       # miss rate for ReadReq accesses (Ratio)
system.cpu.icache.ReadReq.avgMissLatency::cpu.inst 59570.901639                       # average ReadReq miss latency ((Tick/Count))
system.cpu.icache.ReadReq.avgMissLatency::total 59570.901639                       # average ReadReq miss latency ((Tick/Count))
system.cpu.icache.ReadReq.mshrHits::cpu.inst          256                       # number of ReadReq MSHR hits (Count)
system.cpu.icache.ReadReq.mshrHits::total          256                       # number of ReadReq MSHR hits (Count)
system.cpu.icache.ReadReq.mshrMisses::cpu.inst          964                       # number of ReadReq MSHR misses (Count)
system.cpu.icache.ReadReq.mshrMisses::total          964                       # number of ReadReq MSHR misses (Count)
system.cpu.icache.ReadReq.mshrMissLatency::cpu.inst     58899500                       # number of ReadReq MSHR miss ticks (Tick)
system.cpu.icache.ReadReq.mshrMissLatency::total     58899500                       # number of ReadReq MSHR miss ticks (Tick)
system.cpu.icache.ReadReq.mshrMissRate::cpu.inst     0.000098                       # mshr miss rate for ReadReq accesses (Ratio)
system.cpu.icache.ReadReq.mshrMissRate::total     0.000098                       # mshr miss rate for ReadReq accesses (Ratio)
system.cpu.icache.ReadReq.avgMshrMissLatency::cpu.inst 61099.066390                       # average ReadReq mshr miss latency ((Tick/Count))
system.cpu.icache.ReadReq.avgMshrMissLatency::total 61099.066390                       # average ReadReq mshr miss latency ((Tick/Count))
system.cpu.icache.power_state.pwrStateResidencyTicks::UNDEFINED  11784828000                       # Cumulative time (in ticks) in various power states (Tick)
system.cpu.icache.tags.tagsInUse           434.040639                       # Average ticks per tags in use ((Tick/Count))
system.cpu.icache.tags.totalRefs              9878024                       # Total number of references to valid blocks. (Count)
system.cpu.icache.tags.sampledRefs                964                       # Sample count of references to valid blocks. (Count)
system.cpu.icache.tags.avgRefs           10246.912863                       # Average number of references to valid blocks. ((Count/Count))
system.cpu.icache.tags.warmupTick               87500                       # The tick when the warmup percentage was hit. (Tick)
system.cpu.icache.tags.occupancies::cpu.inst   434.040639                       # Average occupied blocks per tick, per requestor ((Count/Tick))
system.cpu.icache.tags.avgOccs::cpu.inst     0.847736                       # Average percentage of cache occupancy ((Ratio/Tick))
system.cpu.icache.tags.avgOccs::total        0.847736                       # Average percentage of cache occupancy ((Ratio/Tick))
system.cpu.icache.tags.occupanciesTaskId::1024          463                       # Occupied blocks per task id (Count)
system.cpu.icache.tags.ageTaskId_1024::0           68                       # Occupied blocks per task id, per block age (Count)
system.cpu.icache.tags.ageTaskId_1024::2            2                       # Occupied blocks per task id, per block age (Count)
system.cpu.icache.tags.ageTaskId_1024::3          175                       # Occupied blocks per task id, per block age (Count)
system.cpu.icache.tags.ageTaskId_1024::4          218                       # Occupied blocks per task id, per block age (Count)
system.cpu.icache.tags.ratioOccsTaskId::1024     0.904297                       # Ratio of occupied blocks and all blocks, per task id (Ratio)
system.cpu.icache.tags.tagAccesses           19757524                       # Number of tag accesses (Count)
system.cpu.icache.tags.dataAccesses          19757524                       # Number of data accesses (Count)
system.cpu.icache.tags.power_state.pwrStateResidencyTicks::UNDEFINED  11784828000                       # Cumulative time (in ticks) in various power states (Tick)
system.cpu.lsq0.forwLoads                      146393                       # Number of loads that had data forwarded from stores (Count)
system.cpu.lsq0.squashedLoads                 1268622                       # Number of loads squashed (Count)
system.cpu.lsq0.ignoredResponses                  810                       # Number of memory responses ignored because the instruction is squashed (Count)
system.cpu.lsq0.memOrderViolation                 683                       # Number of memory ordering violations (Count)
system.cpu.lsq0.squashedStores                 935683                       # Number of stores squashed (Count)
system.cpu.lsq0.rescheduledLoads                36827                       # Number of loads that were rescheduled (Count)
system.cpu.lsq0.blockedByCache                     16                       # Number of times an access to memory failed due to the cache being blocked (Count)
system.cpu.mmu.dtb.instHits                         0                       # ITB inst hits (Count)
system.cpu.mmu.dtb.instMisses                       0                       # ITB inst misses (Count)
system.cpu.mmu.dtb.readHits                         0                       # DTB read hits (Count)
system.cpu.mmu.dtb.readMisses                       0                       # DTB read misses (Count)
system.cpu.mmu.dtb.writeHits                        0                       # DTB write hits (Count)
system.cpu.mmu.dtb.writeMisses                      0                       # DTB write misses (Count)
system.cpu.mmu.dtb.inserts                          0                       # Number of times an entry is inserted into the TLB (Count)
system.cpu.mmu.dtb.flushTlb                         0                       # Number of times complete TLB was flushed (Count)
system.cpu.mmu.dtb.flushTlbMva                      0                       # Number of times TLB was flushed by MVA (Count)
system.cpu.mmu.dtb.flushTlbMvaAsid                  0                       # Number of times TLB was flushed by MVA & ASID (Count)
system.cpu.mmu.dtb.flushTlbAsid                     0                       # Number of times TLB was flushed by ASID (Count)
system.cpu.mmu.dtb.flushedEntries                   0                       # Number of entries that have been flushed from TLB (Count)
system.cpu.mmu.dtb.alignFaults                      0                       # Number of TLB faults due to alignment restrictions (Count)
system.cpu.mmu.dtb.prefetchFaults                   0                       # Number of TLB faults due to prefetch (Count)
system.cpu.mmu.dtb.domainFaults                     0                       # Number of TLB faults due to domain restrictions (Count)
system.cpu.mmu.dtb.permsFaults                      0                       # Number of TLB faults due to permissions restrictions (Count)
system.cpu.mmu.dtb.readAccesses                     0                       # DTB read accesses (Count)
system.cpu.mmu.dtb.writeAccesses                    0                       # DTB write accesses (Count)
system.cpu.mmu.dtb.instAccesses                     0                       # ITB inst accesses (Count)
system.cpu.mmu.dtb.hits                             0                       # Total TLB (inst and data) hits (Count)
system.cpu.mmu.dtb.misses                           0                       # Total TLB (inst and data) misses (Count)
system.cpu.mmu.dtb.accesses                         0                       # Total TLB (inst and data) accesses (Count)
system.cpu.mmu.dtb.stage2_mmu.stage2_tlb.instHits            0                       # ITB inst hits (Count)
system.cpu.mmu.dtb.stage2_mmu.stage2_tlb.instMisses            0                       # ITB inst misses (Count)
system.cpu.mmu.dtb.stage2_mmu.stage2_tlb.readHits            0                       # DTB read hits (Count)
system.cpu.mmu.dtb.stage2_mmu.stage2_tlb.readMisses            0                       # DTB read misses (Count)
system.cpu.mmu.dtb.stage2_mmu.stage2_tlb.writeHits            0                       # DTB write hits (Count)
system.cpu.mmu.dtb.stage2_mmu.stage2_tlb.writeMisses            0                       # DTB write misses (Count)
system.cpu.mmu.dtb.stage2_mmu.stage2_tlb.inserts            0                       # Number of times an entry is inserted into the TLB (Count)
system.cpu.mmu.dtb.stage2_mmu.stage2_tlb.flushTlb            0                       # Number of times complete TLB was flushed (Count)
system.cpu.mmu.dtb.stage2_mmu.stage2_tlb.flushTlbMva            0                       # Number of times TLB was flushed by MVA (Count)
system.cpu.mmu.dtb.stage2_mmu.stage2_tlb.flushTlbMvaAsid            0                       # Number of times TLB was flushed by MVA & ASID (Count)
system.cpu.mmu.dtb.stage2_mmu.stage2_tlb.flushTlbAsid            0                       # Number of times TLB was flushed by ASID (Count)
system.cpu.mmu.dtb.stage2_mmu.stage2_tlb.flushedEntries            0                       # Number of entries that have been flushed from TLB (Count)
system.cpu.mmu.dtb.stage2_mmu.stage2_tlb.alignFaults            0                       # Number of TLB faults due to alignment restrictions (Count)
[...]
system.mem_ctrls.dram.perBankWrBursts::3            0                       # Per bank write bursts (Count)
system.mem_ctrls.dram.perBankWrBursts::4            0                       # Per bank write bursts (Count)
system.mem_ctrls.dram.perBankWrBursts::5            0                       # Per bank write bursts (Count)
system.mem_ctrls.dram.perBankWrBursts::6            0                       # Per bank write bursts (Count)
system.mem_ctrls.dram.perBankWrBursts::7            0                       # Per bank write bursts (Count)
system.mem_ctrls.dram.perBankWrBursts::8            0                       # Per bank write bursts (Count)
system.mem_ctrls.dram.perBankWrBursts::9            0                       # Per bank write bursts (Count)
system.mem_ctrls.dram.perBankWrBursts::10            0                       # Per bank write bursts (Count)
system.mem_ctrls.dram.perBankWrBursts::11            0                       # Per bank write bursts (Count)
system.mem_ctrls.dram.perBankWrBursts::12            0                       # Per bank write bursts (Count)
system.mem_ctrls.dram.perBankWrBursts::13            0                       # Per bank write bursts (Count)
system.mem_ctrls.dram.perBankWrBursts::14            0                       # Per bank write bursts (Count)
system.mem_ctrls.dram.perBankWrBursts::15            0                       # Per bank write bursts (Count)
system.mem_ctrls.dram.totQLat                23695250                       # Total ticks spent queuing (Tick)
system.mem_ctrls.dram.totBusLat               9130000                       # Total ticks spent in databus transfers (Tick)
system.mem_ctrls.dram.totMemAccLat           57932750                       # Total ticks spent from burst creation until serviced by the DRAM (Tick)
system.mem_ctrls.dram.avgQLat                12976.59                       # Average queueing delay per DRAM burst ((Tick/Count))
system.mem_ctrls.dram.avgBusLat               5000.00                       # Average bus latency per DRAM burst ((Tick/Count))
system.mem_ctrls.dram.avgMemAccLat           31726.59                       # Average memory access latency per DRAM burst ((Tick/Count))
system.mem_ctrls.dram.readRowHits                1105                       # Number of row buffer hits during reads (Count)
system.mem_ctrls.dram.writeRowHits                  0                       # Number of row buffer hits during writes (Count)
system.mem_ctrls.dram.readRowHitRate            60.51                       # Row buffer hit rate for reads (Ratio)
system.mem_ctrls.dram.writeRowHitRate             nan                       # Row buffer hit rate for writes (Ratio)
system.mem_ctrls.dram.bytesPerActivate::samples          709                       # Bytes accessed per row activation (Byte)
system.mem_ctrls.dram.bytesPerActivate::mean   160.857546                       # Bytes accessed per row activation (Byte)
system.mem_ctrls.dram.bytesPerActivate::gmean   120.110626                       # Bytes accessed per row activation (Byte)
system.mem_ctrls.dram.bytesPerActivate::stdev   180.909405                       # Bytes accessed per row activation (Byte)
system.mem_ctrls.dram.bytesPerActivate::0-127          257     36.25%     36.25% # Bytes accessed per row activation (Byte)
system.mem_ctrls.dram.bytesPerActivate::128-255          359     50.63%     86.88% # Bytes accessed per row activation (Byte)
system.mem_ctrls.dram.bytesPerActivate::256-383           38      5.36%     92.24% # Bytes accessed per row activation (Byte)
system.mem_ctrls.dram.bytesPerActivate::384-511           15      2.12%     94.36% # Bytes accessed per row activation (Byte)
system.mem_ctrls.dram.bytesPerActivate::512-639           12      1.69%     96.05% # Bytes accessed per row activation (Byte)
system.mem_ctrls.dram.bytesPerActivate::640-767            3      0.42%     96.47% # Bytes accessed per row activation (Byte)
system.mem_ctrls.dram.bytesPerActivate::768-895            5      0.71%     97.18% # Bytes accessed per row activation (Byte)
system.mem_ctrls.dram.bytesPerActivate::896-1023            6      0.85%     98.03% # Bytes accessed per row activation (Byte)
system.mem_ctrls.dram.bytesPerActivate::1024-1151           14      1.97%    100.00% # Bytes accessed per row activation (Byte)
system.mem_ctrls.dram.bytesPerActivate::total          709                       # Bytes accessed per row activation (Byte)
system.mem_ctrls.dram.bytesRead                116864                       # Total number of bytes read from DRAM (Byte)
system.mem_ctrls.dram.bytesWritten                  0                       # Total number of bytes written to DRAM (Byte)
system.mem_ctrls.dram.avgRdBW                9.916479                       # Average DRAM read bandwidth in MiBytes/s ((Byte/Second))
system.mem_ctrls.dram.avgWrBW                       0                       # Average DRAM write bandwidth in MiBytes/s ((Byte/Second))
system.mem_ctrls.dram.peakBW                 12800.00                       # Theoretical peak bandwidth in MiByte/s ((Byte/Second))
system.mem_ctrls.dram.busUtil                    0.08                       # Data bus utilization in percentage (Ratio)
system.mem_ctrls.dram.busUtilRead                0.08                       # Data bus utilization in percentage for reads (Ratio)
system.mem_ctrls.dram.busUtilWrite               0.00                       # Data bus utilization in percentage for writes (Ratio)
system.mem_ctrls.dram.pageHitRate               60.51                       # Row buffer hit rate, read and write combined (Ratio)
system.mem_ctrls.dram.power_state.pwrStateResidencyTicks::UNDEFINED  11784828000                       # Cumulative time (in ticks) in various power states (Tick)
system.mem_ctrls.dram.rank0.actEnergy         2870280                       # Energy for activate commands per rank (pJ) (Joule)
system.mem_ctrls.dram.rank0.preEnergy         1510410                       # Energy for precharge commands per rank (pJ) (Joule)
system.mem_ctrls.dram.rank0.readEnergy        6847260                       # Energy for read commands per rank (pJ) (Joule)
system.mem_ctrls.dram.rank0.writeEnergy             0                       # Energy for write commands per rank (pJ) (Joule)
system.mem_ctrls.dram.rank0.refreshEnergy 929950320.000000                       # Energy for refresh commands per rank (pJ) (Joule)
system.mem_ctrls.dram.rank0.actBackEnergy    893557650                       # Energy for active background per rank (pJ) (Joule)
system.mem_ctrls.dram.rank0.preBackEnergy   3772904640                       # Energy for precharge background per rank (pJ) (Joule)
system.mem_ctrls.dram.rank0.actPowerDownEnergy            0                       # Energy for active power-down per rank (pJ) (Joule)
system.mem_ctrls.dram.rank0.prePowerDownEnergy            0                       # Energy for precharge power-down per rank (pJ) (Joule)
system.mem_ctrls.dram.rank0.selfRefreshEnergy            0                       # Energy for self refresh per rank (pJ) (Joule)
system.mem_ctrls.dram.rank0.totalEnergy    5607640560                       # Total energy per rank (pJ) (Joule)
system.mem_ctrls.dram.rank0.averagePower   475.835588                       # Core power per rank (mW) (Watt)
system.mem_ctrls.dram.rank0.totalIdleTime            0                       # Total Idle time Per DRAM Rank (Tick)
system.mem_ctrls.dram.rank0.pwrStateTime::IDLE   9800292500                       # Time in different power states (Tick)
system.mem_ctrls.dram.rank0.pwrStateTime::REF    393380000                       # Time in different power states (Tick)
system.mem_ctrls.dram.rank0.pwrStateTime::SREF            0                       # Time in different power states (Tick)
system.mem_ctrls.dram.rank0.pwrStateTime::PRE_PDN            0                       # Time in different power states (Tick)
system.mem_ctrls.dram.rank0.pwrStateTime::ACT   1591155500                       # Time in different power states (Tick)
system.mem_ctrls.dram.rank0.pwrStateTime::ACT_PDN            0                       # Time in different power states (Tick)
system.mem_ctrls.dram.rank1.actEnergy         2277660                       # Energy for activate commands per rank (pJ) (Joule)
system.mem_ctrls.dram.rank1.preEnergy         1180245                       # Energy for precharge commands per rank (pJ) (Joule)
system.mem_ctrls.dram.rank1.readEnergy        6190380                       # Energy for read commands per rank (pJ) (Joule)
system.mem_ctrls.dram.rank1.writeEnergy             0                       # Energy for write commands per rank (pJ) (Joule)
system.mem_ctrls.dram.rank1.refreshEnergy 929950320.000000                       # Energy for refresh commands per rank (pJ) (Joule)
system.mem_ctrls.dram.rank1.actBackEnergy    727709310                       # Energy for active background per rank (pJ) (Joule)
system.mem_ctrls.dram.rank1.preBackEnergy   3912566400                       # Energy for precharge background per rank (pJ) (Joule)
system.mem_ctrls.dram.rank1.actPowerDownEnergy            0                       # Energy for active power-down per rank (pJ) (Joule)
system.mem_ctrls.dram.rank1.prePowerDownEnergy            0                       # Energy for precharge power-down per rank (pJ) (Joule)
system.mem_ctrls.dram.rank1.selfRefreshEnergy            0                       # Energy for self refresh per rank (pJ) (Joule)
system.mem_ctrls.dram.rank1.totalEnergy    5579874315                       # Total energy per rank (pJ) (Joule)
system.mem_ctrls.dram.rank1.averagePower   473.479487                       # Core power per rank (mW) (Watt)
system.mem_ctrls.dram.rank1.totalIdleTime            0                       # Total Idle time Per DRAM Rank (Tick)
system.mem_ctrls.dram.rank1.pwrStateTime::IDLE  10165072000                       # Time in different power states (Tick)
system.mem_ctrls.dram.rank1.pwrStateTime::REF    393380000                       # Time in different power states (Tick)
system.mem_ctrls.dram.rank1.pwrStateTime::SREF            0                       # Time in different power states (Tick)
system.mem_ctrls.dram.rank1.pwrStateTime::PRE_PDN            0                       # Time in different power states (Tick)
system.mem_ctrls.dram.rank1.pwrStateTime::ACT   1226376000                       # Time in different power states (Tick)
system.mem_ctrls.dram.rank1.pwrStateTime::ACT_PDN            0                       # Time in different power states (Tick)
system.mem_ctrls.power_state.pwrStateResidencyTicks::UNDEFINED  11784828000                       # Cumulative time (in ticks) in various power states (Tick)
system.membus.transDist::ReadResp                 989                       # Transaction distribution (Count)
system.membus.transDist::ReadExReq                837                       # Transaction distribution (Count)
system.membus.transDist::ReadExResp               837                       # Transaction distribution (Count)
system.membus.transDist::ReadSharedReq            989                       # Transaction distribution (Count)
system.membus.pktCount_system.l2.mem_side_port::system.mem_ctrls.port         3652                       # Packet count per connected requestor and responder (Count)
system.membus.pktCount::total                    3652                       # Packet count per connected requestor and responder (Count)
system.membus.pktSize_system.l2.mem_side_port::system.mem_ctrls.port       116864                       # Cumulative packet size per connected requestor and responder (Byte)
system.membus.pktSize::total                   116864                       # Cumulative packet size per connected requestor and responder (Byte)
system.membus.snoops                                0                       # Total snoops (Count)
system.membus.snoopTraffic                          0                       # Total snoop traffic (Byte)
system.membus.snoopFanout::samples               1826                       # Request fanout histogram
system.membus.snoopFanout::mean                     0                       # Request fanout histogram
system.membus.snoopFanout::stdev                    0                       # Request fanout histogram
system.membus.snoopFanout::underflows               0      0.00%      0.00% # Request fanout histogram
system.membus.snoopFanout::0                     1826    100.00%    100.00% # Request fanout histogram
system.membus.snoopFanout::1                        0      0.00%    100.00% # Request fanout histogram
system.membus.snoopFanout::overflows                0      0.00%    100.00% # Request fanout histogram
system.membus.snoopFanout::min_value                0                       # Request fanout histogram
system.membus.snoopFanout::max_value                0                       # Request fanout histogram
system.membus.snoopFanout::total                 1826                       # Request fanout histogram
system.membus.power_state.pwrStateResidencyTicks::UNDEFINED  11784828000                       # Cumulative time (in ticks) in various power states (Tick)
system.membus.reqLayer0.occupancy             2305000                       # Layer occupancy (ticks) (Tick)
system.membus.reqLayer0.utilization               0.0                       # Layer utilization (Ratio)
system.membus.respLayer1.occupancy            9744750                       # Layer occupancy (ticks) (Tick)
system.membus.respLayer1.utilization              0.0                       # Layer utilization (Ratio)
system.membus.snoop_filter.totRequests           1826                       # Total number of requests made to the snoop filter. (Count)
system.membus.snoop_filter.hitSingleRequests            0                       # Number of requests hitting in the snoop filter with a single holder of the requested data. (Count)
system.membus.snoop_filter.hitMultiRequests            0                       # Number of requests hitting in the snoop filter with multiple (>1) holders of the requested data. (Count)
system.membus.snoop_filter.totSnoops                0                       # Total number of snoops made to the snoop filter. (Count)
system.membus.snoop_filter.hitSingleSnoops            0                       # Number of snoops hitting in the snoop filter with a single holder of the requested data. (Count)
system.membus.snoop_filter.hitMultiSnoops            0                       # Number of snoops hitting in the snoop filter with multiple (>1) holders of the requested data. (Count)
system.tol2bus.transDist::ReadResp              23138                       # Transaction distribution (Count)
system.tol2bus.transDist::WritebackDirty        19256                       # Transaction distribution (Count)
system.tol2bus.transDist::WritebackClean          501                       # Transaction distribution (Count)
system.tol2bus.transDist::CleanEvict             3193                       # Transaction distribution (Count)
system.tol2bus.transDist::ReadExReq              1155                       # Transaction distribution (Count)
system.tol2bus.transDist::ReadExResp             1155                       # Transaction distribution (Count)
system.tol2bus.transDist::ReadCleanReq            964                       # Transaction distribution (Count)
system.tol2bus.transDist::ReadSharedReq         22174                       # Transaction distribution (Count)
system.tol2bus.pktCount_system.cpu.icache.mem_side_port::system.l2.cpu_side_port         2429                       # Packet count per connected requestor and responder (Count)
system.tol2bus.pktCount_system.cpu.dcache.mem_side_port::system.l2.cpu_side_port        69107                       # Packet count per connected requestor and responder (Count)
system.tol2bus.pktCount::total                  71536                       # Packet count per connected requestor and responder (Count)
system.tol2bus.pktSize_system.cpu.icache.mem_side_port::system.l2.cpu_side_port        93760                       # Cumulative packet size per connected requestor and responder (Byte)
system.tol2bus.pktSize_system.cpu.dcache.mem_side_port::system.l2.cpu_side_port      2725440                       # Cumulative packet size per connected requestor and responder (Byte)
system.tol2bus.pktSize::total                 2819200                       # Cumulative packet size per connected requestor and responder (Byte)
system.tol2bus.snoops                               0                       # Total snoops (Count)
system.tol2bus.snoopTraffic                         0                       # Total snoop traffic (Byte)
system.tol2bus.snoopFanout::samples             24293                       # Request fanout histogram
system.tol2bus.snoopFanout::mean             0.009591                       # Request fanout histogram
system.tol2bus.snoopFanout::stdev            0.097466                       # Request fanout histogram
system.tol2bus.snoopFanout::underflows              0      0.00%      0.00% # Request fanout histogram
system.tol2bus.snoopFanout::0                   24060     99.04%     99.04% # Request fanout histogram
system.tol2bus.snoopFanout::1                     233      0.96%    100.00% # Request fanout histogram
system.tol2bus.snoopFanout::2                       0      0.00%    100.00% # Request fanout histogram
system.tol2bus.snoopFanout::overflows               0      0.00%    100.00% # Request fanout histogram
system.tol2bus.snoopFanout::min_value               0                       # Request fanout histogram
system.tol2bus.snoopFanout::max_value               1                       # Request fanout histogram
system.tol2bus.snoopFanout::total               24293                       # Request fanout histogram
system.tol2bus.power_state.pwrStateResidencyTicks::UNDEFINED  11784828000                       # Cumulative time (in ticks) in various power states (Tick)
system.tol2bus.reqLayer0.occupancy           43378500                       # Layer occupancy (ticks) (Tick)
system.tol2bus.reqLayer0.utilization              0.0                       # Layer utilization (Ratio)
system.tol2bus.respLayer0.occupancy           1446998                       # Layer occupancy (ticks) (Tick)
system.tol2bus.respLayer0.utilization             0.0                       # Layer utilization (Ratio)
system.tol2bus.respLayer1.occupancy          34996993                       # Layer occupancy (ticks) (Tick)
system.tol2bus.respLayer1.utilization             0.0                       # Layer utilization (Ratio)
system.tol2bus.snoop_filter.totRequests         47243                       # Total number of requests made to the snoop filter. (Count)
system.tol2bus.snoop_filter.hitSingleRequests        22977                       # Number of requests hitting in the snoop filter with a single holder of the requested data. (Count)
system.tol2bus.snoop_filter.hitMultiRequests          206                       # Number of requests hitting in the snoop filter with multiple (>1) holders of the requested data. (Count)
system.tol2bus.snoop_filter.totSnoops               0                       # Total number of snoops made to the snoop filter. (Count)
system.tol2bus.snoop_filter.hitSingleSnoops            0                       # Number of snoops hitting in the snoop filter with a single holder of the requested data. (Count)
system.tol2bus.snoop_filter.hitMultiSnoops            0                       # Number of snoops hitting in the snoop filter with multiple (>1) holders of the requested data. (Count)
system.voltage_domain.voltage                       1                       # Voltage in Volts (Volt)
system.workload.inst.arm                            0                       # number of arm instructions executed (Count)
system.workload.inst.quiesce                        0                       # number of quiesce instructions executed (Count)

---------- End Simulation Statistics   ----------
